<?xml version="1.0" encoding="UTF-8"?>

<!-- generated on 2025-10-19 10:16:21 by Eclipse SUMO netconvert Version 1.24.0
<netconvertConfiguration xmlns:xsi="http://www.w3.org/2001/XMLSchema-instance" xsi:noNamespaceSchemaLocation="http://sumo.dlr.de/xsd/netconvertConfiguration.xsd">

    <input>
        <node-files value="highway.nod.xml"/>
        <edge-files value="highway.edg.xml"/>
    </input>

    <output>
        <output-file value="highway.net.xml"/>
    </output>

</netconvertConfiguration>
-->

<net version="1.20" junctionCornerDetail="5" limitTurnSpeed="5.50" xmlns:xsi="http://www.w3.org/2001/XMLSchema-instance" xsi:noNamespaceSchemaLocation="http://sumo.dlr.de/xsd/net_file.xsd">

    <location netOffset="0.00,0.00" convBoundary="0.00,0.00,3000.00,0.00" origBoundary="0.00,0.00,3000.00,0.00" projParameter="!"/>

    <edge id="highway" from="start" to="end" priority="-1">
        <lane id="highway_0" index="0" speed="33.33" length="3000.00" shape="0.00,-11.20 3000.00,-11.20"/>
        <lane id="highway_1" index="1" speed="33.33" length="3000.00" shape="0.00,-8.00 3000.00,-8.00"/>
        <lane id="highway_2" index="2" speed="33.33" length="3000.00" shape="0.00,-4.80 3000.00,-4.80"/>
        <lane id="highway_3" index="3" speed="33.33" length="3000.00" shape="0.00,-1.60 3000.00,-1.60"/>
    </edge>

    <junction id="end" type="dead_end" x="3000.00" y="0.00" incLanes="highway_0 highway_1 highway_2 highway_3" intLanes="" shape="3000.00,-12.80 3000.00,0.00"/>
    <junction id="start" type="dead_end" x="0.00" y="0.00" incLanes="" intLanes="" shape="0.00,0.00 0.00,-12.80"/>

</net>
